Circuit: * C:\Users\calho_000\Documents\LTSPICE\ECE101_PCBWAY_TUTORIAL_SIM\ECE101_PCBWAY_TUTORIAL_SIM.asc

Limiting rise time of source v3 to 0.05
Limiting fall time of source v3 to 0.05
Limiting rise time of source v2 to 0.05
Limiting fall time of source v2 to 0.05
WARNING: Less than two connections to node NC_01.  This node is used by S:U1:1.
Direct Newton iteration for .op point succeeded.

Date: Tue Sep 21 11:38:28 2021
Total elapsed time: 3.385 seconds.

tnom = 27
temp = 27
method = modified trap
totiter = 340794
traniter = 340774
tranpoints = 165556
accept = 113099
rejected = 52457
matrix size = 29
fillins = 0
solver = Normal
Matrix Compiler1: 988 bytes object code size  0.3/0.1/[0.1]
Matrix Compiler2: 1.84 KB object code size  0.2/0.3/[0.2]

